Circuit: *HNN_proj

Unknown model type "" -- ignored
Fatal Error: Multiple instances of "M1ssl"
