Circuit: *NAND_FLASH for Hopfield Network

Unknown MOS level: 72
Unknown MOS level: 72
Unknown MOS level: 72
Unknown MOS level: 72
Unknown MOS level: 72
Unknown MOS level: 72
Unknown MOS level: 72
Unknown MOS level: 72
Fatal Error: Multiple instances of "Print"
